examples/feeders/1_MIRA_1/012_cargasBT_1_1.dss
New Load.BT_1214991_M1 bus1=UC1214991.2.4 phases=1 conn=Wye model=2 kv=0.22 kw=1.1393275 pf=0.92 daily=RU2_DU status=variable vmaxpu=1.5 vminpu=0.92
New Load.BT_1214991_M2 bus1=UC1214991.2.4 phases=1 conn=Wye model=3 kv=0.22 kw=1.1393275 pf=0.92 daily=RU2_DU status=variable vmaxpu=1.5 vminpu=0.92
New Load.BT_1215257_M1 bus1=UC1215257.1.4 phases=1 conn=Wye model=2 kv=0.22 kw=0.001023 pf=0.92 daily=CO6_DU status=variable vmaxpu=1.5 vminpu=0.92
New Load.BT_1215257_M2 bus1=UC1215257.1.4 phases=1 conn=Wye model=3 kv=0.22 kw=0.001023 pf=0.92 daily=CO6_DU status=variable vmaxpu=1.5 vminpu=0.92
New Load.BT_1215258_M1 bus1=UC1215258.2.4 phases=1 conn=Wye model=2 kv=0.22 kw=0.297986 pf=0.92 daily=RU4_DU status=variable vmaxpu=1.5 vminpu=0.92
New Load.BT_1215258_M2 bus1=UC1215258.2.4 phases=1 conn=Wye model=3 kv=0.22 kw=0.297986 pf=0.92 daily=RU4_DU status=variable vmaxpu=1.5 vminpu=0.92
New Load.BT_1215260_M1 bus1=UC1215260.1.4 phases=1 conn=Wye model=2 kv=0.22 kw=0.215658 pf=0.92 daily=PP4_DU status=variable vmaxpu=1.5 vminpu=0.92
New Load.BT_1215260_M2 bus1=UC1215260.1.4 phases=1 conn=Wye model=3 kv=0.22 kw=0.215658 pf=0.92 daily=PP4_DU status=variable vmaxpu=1.5 vminpu=0.92
New Load.BT_1215261_M1 bus1=UC1215261.1.2.4 phases=1 conn=Delta model=2 kv=0.44 kw=0.998205 pf=0.92 daily=RU4_DU status=variable vmaxpu=1.5 vminpu=0.92
New Load.BT_1215261_M2 bus1=UC1215261.1.2.4 phases=1 conn=Delta model=3 kv=0.44 kw=0.998205 pf=0.92 daily=RU4_DU status=variable vmaxpu=1.5 vminpu=0.92
New Load.BT_1215262_M1 bus1=UC1215262.1.4 phases=1 conn=Wye model=2 kv=0.22 kw=0 pf=0.92 daily=RU7_DU status=variable vmaxpu=1.5 vminpu=0.92
New Load.BT_1215262_M2 bus1=UC1215262.1.4 phases=1 conn=Wye model=3 kv=0.22 kw=0 pf=0.92 daily=RU7_DU status=variable vmaxpu=1.5 vminpu=0.92
New Load.BT_1215288_M1 bus1=UC1215288.1.4 phases=1 conn=Wye model=2 kv=0.22 kw=0.1832765 pf=0.92 daily=RU7_DU status=variable vmaxpu=1.5 vminpu=0.92
New Load.BT_1215288_M2 bus1=UC1215288.1.4 phases=1 conn=Wye model=3 kv=0.22 kw=0.1832765 pf=0.92 daily=RU7_DU status=variable vmaxpu=1.5 vminpu=0.92
New Load.BT_1215289_M1 bus1=UC1215289.2.4 phases=1 conn=Wye model=2 kv=0.22 kw=0.4041835 pf=0.92 daily=RU8_DU status=variable vmaxpu=1.5 vminpu=0.92
New Load.BT_1215289_M2 bus1=UC1215289.2.4 phases=1 conn=Wye model=3 kv=0.22 kw=0.4041835 pf=0.92 daily=RU8_DU status=variable vmaxpu=1.5 vminpu=0.92
New Load.BT_1229425_M1 bus1=UC1229425.1.4 phases=1 conn=Wye model=2 kv=0.22 kw=0.042868 pf=0.92 daily=RU3_DU status=variable vmaxpu=1.5 vminpu=0.92
New Load.BT_1229425_M2 bus1=UC1229425.1.4 phases=1 conn=Wye model=3 kv=0.22 kw=0.042868 pf=0.92 daily=RU3_DU status=variable vmaxpu=1.5 vminpu=0.92
New Load.BT_1237144_M1 bus1=UC1237144.1.4 phases=1 conn=Wye model=2 kv=0.22 kw=0.559963 pf=0.92 daily=RU8_DU status=variable vmaxpu=1.5 vminpu=0.92
New Load.BT_1237144_M2 bus1=UC1237144.1.4 phases=1 conn=Wye model=3 kv=0.22 kw=0.559963 pf=0.92 daily=RU8_DU status=variable vmaxpu=1.5 vminpu=0.92
New Load.BT_1216120_M1 bus1=UC1216120.2.4 phases=1 conn=Wye model=2 kv=0.22 kw=0.2633345 pf=0.92 daily=RU3_DU status=variable vmaxpu=1.5 vminpu=0.92
New Load.BT_1216120_M2 bus1=UC1216120.2.4 phases=1 conn=Wye model=3 kv=0.22 kw=0.2633345 pf=0.92 daily=RU3_DU status=variable vmaxpu=1.5 vminpu=0.92
New Load.BT_1215267_M1 bus1=UC1215267.1.2.4 phases=1 conn=Delta model=2 kv=0.44 kw=0.2422655 pf=0.92 daily=RU1_DU status=variable vmaxpu=1.5 vminpu=0.92
New Load.BT_1215267_M2 bus1=UC1215267.1.2.4 phases=1 conn=Delta model=3 kv=0.44 kw=0.2422655 pf=0.92 daily=RU1_DU status=variable vmaxpu=1.5 vminpu=0.92
New Load.BT_1215270_M1 bus1=UC1215270.1.2.4 phases=1 conn=Delta model=2 kv=0.44 kw=0.4930405 pf=0.92 daily=RU6_DU status=variable vmaxpu=1.5 vminpu=0.92
New Load.BT_1215270_M2 bus1=UC1215270.1.2.4 phases=1 conn=Delta model=3 kv=0.44 kw=0.4930405 pf=0.92 daily=RU6_DU status=variable vmaxpu=1.5 vminpu=0.92
New Load.BT_1238423_M1 bus1=UC1238423.1.4 phases=1 conn=Wye model=2 kv=0.22 kw=0 pf=0.92 daily=RU8_DU status=variable vmaxpu=1.5 vminpu=0.92
New Load.BT_1238423_M2 bus1=UC1238423.1.4 phases=1 conn=Wye model=3 kv=0.22 kw=0 pf=0.92 daily=RU8_DU status=variable vmaxpu=1.5 vminpu=0.92
New Load.BT_1215274_M1 bus1=UC1215274.1.4 phases=1 conn=Wye model=2 kv=0.22 kw=0.1907895 pf=0.92 daily=RU4_DU status=variable vmaxpu=1.5 vminpu=0.92
New Load.BT_1215274_M2 bus1=UC1215274.1.4 phases=1 conn=Wye model=3 kv=0.22 kw=0.1907895 pf=0.92 daily=RU4_DU status=variable vmaxpu=1.5 vminpu=0.92
New Load.BT_1215276_M1 bus1=UC1215276.2.4 phases=1 conn=Wye model=2 kv=0.22 kw=1.0131115 pf=0.92 daily=RU1_DU status=variable vmaxpu=1.5 vminpu=0.92
New Load.BT_1215276_M2 bus1=UC1215276.2.4 phases=1 conn=Wye model=3 kv=0.22 kw=1.0131115 pf=0.92 daily=RU1_DU status=variable vmaxpu=1.5 vminpu=0.92
New Load.BT_1215278_M1 bus1=UC1215278.1.2.4 phases=1 conn=Delta model=2 kv=0.44 kw=0.340028 pf=0.92 daily=RU6_DU status=variable vmaxpu=1.5 vminpu=0.92
New Load.BT_1215278_M2 bus1=UC1215278.1.2.4 phases=1 conn=Delta model=3 kv=0.44 kw=0.340028 pf=0.92 daily=RU6_DU status=variable vmaxpu=1.5 vminpu=0.92
New Load.BT_1232403_M1 bus1=UC1232403.2.4 phases=1 conn=Wye model=2 kv=0.22 kw=0.2576645 pf=0.92 daily=RU4_DU status=variable vmaxpu=1.5 vminpu=0.92
New Load.BT_1232403_M2 bus1=UC1232403.2.4 phases=1 conn=Wye model=3 kv=0.22 kw=0.2576645 pf=0.92 daily=RU4_DU status=variable vmaxpu=1.5 vminpu=0.92
New Load.BT_1222704_M1 bus1=UC1222704.2.4 phases=1 conn=Wye model=2 kv=0.22 kw=0.022619 pf=0.92 daily=RU4_DU status=variable vmaxpu=1.5 vminpu=0.92
New Load.BT_1222704_M2 bus1=UC1222704.2.4 phases=1 conn=Wye model=3 kv=0.22 kw=0.022619 pf=0.92 daily=RU4_DU status=variable vmaxpu=1.5 vminpu=0.92
New Load.BT_1227341_M1 bus1=UC1227341.1.4 phases=1 conn=Wye model=2 kv=0.22 kw=0.2296805 pf=0.92 daily=RU1_DU status=variable vmaxpu=1.5 vminpu=0.92
New Load.BT_1227341_M2 bus1=UC1227341.1.4 phases=1 conn=Wye model=3 kv=0.22 kw=0.2296805 pf=0.92 daily=RU1_DU status=variable vmaxpu=1.5 vminpu=0.92
New Load.BT_1230363_M1 bus1=UC1230363.2.4 phases=1 conn=Wye model=2 kv=0.22 kw=0.057864 pf=0.92 daily=RU2_DU status=variable vmaxpu=1.5 vminpu=0.92
New Load.BT_1230363_M2 bus1=UC1230363.2.4 phases=1 conn=Wye model=3 kv=0.22 kw=0.057864 pf=0.92 daily=RU2_DU status=variable vmaxpu=1.5 vminpu=0.92
New Load.BT_1215250_M1 bus1=UC1215250.1.4 phases=1 conn=Wye model=2 kv=0.22 kw=0.5846285 pf=0.92 daily=RU2_DU status=variable vmaxpu=1.5 vminpu=0.92
New Load.BT_1215250_M2 bus1=UC1215250.1.4 phases=1 conn=Wye model=3 kv=0.22 kw=0.5846285 pf=0.92 daily=RU2_DU status=variable vmaxpu=1.5 vminpu=0.92
New Load.BT_1215281_M1 bus1=UC1215281.1.4 phases=1 conn=Wye model=2 kv=0.22 kw=0.2703335 pf=0.92 daily=RU3_DU status=variable vmaxpu=1.5 vminpu=0.92
New Load.BT_1215281_M2 bus1=UC1215281.1.4 phases=1 conn=Wye model=3 kv=0.22 kw=0.2703335 pf=0.92 daily=RU3_DU status=variable vmaxpu=1.5 vminpu=0.92
New Load.BT_1215282_M1 bus1=UC1215282.1.2.4 phases=1 conn=Delta model=2 kv=0.44 kw=0 pf=0.92 daily=RU2_DU status=variable vmaxpu=1.5 vminpu=0.92
New Load.BT_1215282_M2 bus1=UC1215282.1.2.4 phases=1 conn=Delta model=3 kv=0.44 kw=0 pf=0.92 daily=RU2_DU status=variable vmaxpu=1.5 vminpu=0.92
New Load.BT_1215284_M1 bus1=UC1215284.1.2.4 phases=1 conn=Delta model=2 kv=0.44 kw=0.2831675 pf=0.92 daily=RU1_DU status=variable vmaxpu=1.5 vminpu=0.92
New Load.BT_1215284_M2 bus1=UC1215284.1.2.4 phases=1 conn=Delta model=3 kv=0.44 kw=0.2831675 pf=0.92 daily=RU1_DU status=variable vmaxpu=1.5 vminpu=0.92
New Load.BT_1215311_M1 bus1=UC1215311.1.4 phases=1 conn=Wye model=2 kv=0.22 kw=0.302625 pf=0.92 daily=RU6_DU status=variable vmaxpu=1.5 vminpu=0.92
New Load.BT_1215311_M2 bus1=UC1215311.1.4 phases=1 conn=Wye model=3 kv=0.22 kw=0.302625 pf=0.92 daily=RU6_DU status=variable vmaxpu=1.5 vminpu=0.92
New Load.BT_1216170_M1 bus1=UC1216170.2.4 phases=1 conn=Wye model=2 kv=0.22 kw=0.3152605 pf=0.92 daily=RU2_DU status=variable vmaxpu=1.5 vminpu=0.92
New Load.BT_1216170_M2 bus1=UC1216170.2.4 phases=1 conn=Wye model=3 kv=0.22 kw=0.3152605 pf=0.92 daily=RU2_DU status=variable vmaxpu=1.5 vminpu=0.92
New Load.BT_1225161_M1 bus1=UC1225161.1.4 phases=1 conn=Wye model=2 kv=0.22 kw=0.155779 pf=0.92 daily=RU8_DU status=variable vmaxpu=1.5 vminpu=0.92
New Load.BT_1225161_M2 bus1=UC1225161.1.4 phases=1 conn=Wye model=3 kv=0.22 kw=0.155779 pf=0.92 daily=RU8_DU status=variable vmaxpu=1.5 vminpu=0.92
New Load.BT_1232605_M1 bus1=UC1232605.2.4 phases=1 conn=Wye model=2 kv=0.22 kw=0.2248405 pf=0.92 daily=RU3_DU status=variable vmaxpu=1.5 vminpu=0.92
New Load.BT_1232605_M2 bus1=UC1232605.2.4 phases=1 conn=Wye model=3 kv=0.22 kw=0.2248405 pf=0.92 daily=RU3_DU status=variable vmaxpu=1.5 vminpu=0.92
New Load.BT_1215109_M1 bus1=UC1215109.2.4 phases=1 conn=Wye model=2 kv=0.22 kw=0.231219 pf=0.92 daily=RU6_DU status=variable vmaxpu=1.5 vminpu=0.92
New Load.BT_1215109_M2 bus1=UC1215109.2.4 phases=1 conn=Wye model=3 kv=0.22 kw=0.231219 pf=0.92 daily=RU6_DU status=variable vmaxpu=1.5 vminpu=0.92
New Load.BT_1215110_M1 bus1=UC1215110.2.4 phases=1 conn=Wye model=2 kv=0.22 kw=0.1588885 pf=0.92 daily=RU1_DU status=variable vmaxpu=1.5 vminpu=0.92
New Load.BT_1215110_M2 bus1=UC1215110.2.4 phases=1 conn=Wye model=3 kv=0.22 kw=0.1588885 pf=0.92 daily=RU1_DU status=variable vmaxpu=1.5 vminpu=0.92
New Load.BT_1238603_M1 bus1=UC1238603.2.4 phases=1 conn=Wye model=2 kv=0.22 kw=0 pf=0.92 daily=RE4_DU status=variable vmaxpu=1.5 vminpu=0.92
New Load.BT_1238603_M2 bus1=UC1238603.2.4 phases=1 conn=Wye model=3 kv=0.22 kw=0 pf=0.92 daily=RE4_DU status=variable vmaxpu=1.5 vminpu=0.92
New Load.BT_1238618_M1 bus1=UC1238618.2.4 phases=1 conn=Wye model=2 kv=0.22 kw=0 pf=0.92 daily=RE8_DU status=variable vmaxpu=1.5 vminpu=0.92
New Load.BT_1238618_M2 bus1=UC1238618.2.4 phases=1 conn=Wye model=3 kv=0.22 kw=0 pf=0.92 daily=RE8_DU status=variable vmaxpu=1.5 vminpu=0.92
New Load.BT_1215116_M1 bus1=UC1215116.1.4 phases=1 conn=Wye model=2 kv=0.22 kw=0.2104585 pf=0.92 daily=RU4_DU status=variable vmaxpu=1.5 vminpu=0.92
New Load.BT_1215116_M2 bus1=UC1215116.1.4 phases=1 conn=Wye model=3 kv=0.22 kw=0.2104585 pf=0.92 daily=RU4_DU status=variable vmaxpu=1.5 vminpu=0.92
New Load.BT_1215307_M1 bus1=UC1215307.1.4 phases=1 conn=Wye model=2 kv=0.22 kw=0.22789 pf=0.92 daily=RU7_DU status=variable vmaxpu=1.5 vminpu=0.92
New Load.BT_1215307_M2 bus1=UC1215307.1.4 phases=1 conn=Wye model=3 kv=0.22 kw=0.22789 pf=0.92 daily=RU7_DU status=variable vmaxpu=1.5 vminpu=0.92
New Load.BT_1225153_M1 bus1=UC1225153.2.4 phases=1 conn=Wye model=2 kv=0.22 kw=0 pf=0.92 daily=RE1_DU status=variable vmaxpu=1.5 vminpu=0.92
New Load.BT_1225153_M2 bus1=UC1225153.2.4 phases=1 conn=Wye model=3 kv=0.22 kw=0 pf=0.92 daily=RE1_DU status=variable vmaxpu=1.5 vminpu=0.92
New Load.BT_1227329_M1 bus1=UC1227329.1.2.4 phases=1 conn=Delta model=2 kv=0.44 kw=0.092844 pf=0.92 daily=RU7_DU status=variable vmaxpu=1.5 vminpu=0.92
New Load.BT_1227329_M2 bus1=UC1227329.1.2.4 phases=1 conn=Delta model=3 kv=0.44 kw=0.092844 pf=0.92 daily=RU7_DU status=variable vmaxpu=1.5 vminpu=0.92
New Load.BT_1228764_M1 bus1=UC1228764.2.4 phases=1 conn=Wye model=2 kv=0.22 kw=0.6544645 pf=0.92 daily=RU2_DU status=variable vmaxpu=1.5 vminpu=0.92
New Load.BT_1228764_M2 bus1=UC1228764.2.4 phases=1 conn=Wye model=3 kv=0.22 kw=0.6544645 pf=0.92 daily=RU2_DU status=variable vmaxpu=1.5 vminpu=0.92
New Load.BT_1215114_M1 bus1=UC1215114.2.4 phases=1 conn=Wye model=2 kv=0.22 kw=0.5964515 pf=0.92 daily=RU8_DU status=variable vmaxpu=1.5 vminpu=0.92
New Load.BT_1215114_M2 bus1=UC1215114.2.4 phases=1 conn=Wye model=3 kv=0.22 kw=0.5964515 pf=0.92 daily=RU8_DU status=variable vmaxpu=1.5 vminpu=0.92
New Load.BT_1214867_M1 bus1=UC1214867.2.4 phases=1 conn=Wye model=2 kv=0.22 kw=0.2380195 pf=0.92 daily=RU6_DU status=variable vmaxpu=1.5 vminpu=0.92
New Load.BT_1214867_M2 bus1=UC1214867.2.4 phases=1 conn=Wye model=3 kv=0.22 kw=0.2380195 pf=0.92 daily=RU6_DU status=variable vmaxpu=1.5 vminpu=0.92
New Load.BT_IP7608_M1 bus1=BT8041.1.4 phases=1 conn=Wye model=2 kv=0.22 kw=0.204713 pf=0.92 daily=IP1_DU status=variable vmaxpu=1.5 vminpu=0.92
New Load.BT_IP7608_M2 bus1=BT8041.1.4 phases=1 conn=Wye model=3 kv=0.22 kw=0.204713 pf=0.92 daily=IP1_DU status=variable vmaxpu=1.5 vminpu=0.92
New Load.BT_1238430_M1 bus1=UC1238430.2.4 phases=1 conn=Wye model=2 kv=0.22 kw=0.0865435 pf=0.92 daily=RU4_DU status=variable vmaxpu=1.5 vminpu=0.92
New Load.BT_1238430_M2 bus1=UC1238430.2.4 phases=1 conn=Wye model=3 kv=0.22 kw=0.0865435 pf=0.92 daily=RU4_DU status=variable vmaxpu=1.5 vminpu=0.92
New Load.BT_1215120_M1 bus1=UC1215120.1.2.4 phases=1 conn=Delta model=2 kv=0.44 kw=0.84872 pf=0.92 daily=RU4_DU status=variable vmaxpu=1.5 vminpu=0.92
New Load.BT_1215120_M2 bus1=UC1215120.1.2.4 phases=1 conn=Delta model=3 kv=0.44 kw=0.84872 pf=0.92 daily=RU4_DU status=variable vmaxpu=1.5 vminpu=0.92
New Load.BT_1215123_M1 bus1=UC1215123.2.4 phases=1 conn=Wye model=2 kv=0.22 kw=0.5950485 pf=0.92 daily=RU8_DU status=variable vmaxpu=1.5 vminpu=0.92
New Load.BT_1215123_M2 bus1=UC1215123.2.4 phases=1 conn=Wye model=3 kv=0.22 kw=0.5950485 pf=0.92 daily=RU8_DU status=variable vmaxpu=1.5 vminpu=0.92
New Load.BT_1215203_M1 bus1=UC1215203.1.4 phases=1 conn=Wye model=2 kv=0.22 kw=0.207656 pf=0.92 daily=RU1_DU status=variable vmaxpu=1.5 vminpu=0.92
New Load.BT_1215203_M2 bus1=UC1215203.1.4 phases=1 conn=Wye model=3 kv=0.22 kw=0.207656 pf=0.92 daily=RU1_DU status=variable vmaxpu=1.5 vminpu=0.92
New Load.BT_1225638_M1 bus1=UC1225638.2.4 phases=1 conn=Wye model=2 kv=0.22 kw=0.058938 pf=0.92 daily=RU6_DU status=variable vmaxpu=1.5 vminpu=0.92
New Load.BT_1225638_M2 bus1=UC1225638.2.4 phases=1 conn=Wye model=3 kv=0.22 kw=0.058938 pf=0.92 daily=RU6_DU status=variable vmaxpu=1.5 vminpu=0.92
New Load.BT_1223010_M1 bus1=UC1223010.1.4 phases=1 conn=Wye model=2 kv=0.22 kw=0.3045795 pf=0.92 daily=RU5_DU status=variable vmaxpu=1.5 vminpu=0.92
New Load.BT_1223010_M2 bus1=UC1223010.1.4 phases=1 conn=Wye model=3 kv=0.22 kw=0.3045795 pf=0.92 daily=RU5_DU status=variable vmaxpu=1.5 vminpu=0.92
New Load.BT_1233054_M1 bus1=UC1233054.2.4 phases=1 conn=Wye model=2 kv=0.22 kw=0.2001575 pf=0.92 daily=RU7_DU status=variable vmaxpu=1.5 vminpu=0.92
New Load.BT_1233054_M2 bus1=UC1233054.2.4 phases=1 conn=Wye model=3 kv=0.22 kw=0.2001575 pf=0.92 daily=RU7_DU status=variable vmaxpu=1.5 vminpu=0.92
New Load.BT_1233678_M1 bus1=UC1233678.2.4 phases=1 conn=Wye model=2 kv=0.22 kw=0.1656115 pf=0.92 daily=RU2_DU status=variable vmaxpu=1.5 vminpu=0.92
New Load.BT_1233678_M2 bus1=UC1233678.2.4 phases=1 conn=Wye model=3 kv=0.22 kw=0.1656115 pf=0.92 daily=RU2_DU status=variable vmaxpu=1.5 vminpu=0.92
New Load.BT_1216103_M1 bus1=UC1216103.2.4 phases=1 conn=Wye model=2 kv=0.22 kw=0.076152 pf=0.92 daily=CO1_DU status=variable vmaxpu=1.5 vminpu=0.92
New Load.BT_1216103_M2 bus1=UC1216103.2.4 phases=1 conn=Wye model=3 kv=0.22 kw=0.076152 pf=0.92 daily=CO1_DU status=variable vmaxpu=1.5 vminpu=0.92
New Load.BT_1214905_M1 bus1=UC1214905.1.4 phases=1 conn=Wye model=2 kv=0.22 kw=0.3618255 pf=0.92 daily=RU1_DU status=variable vmaxpu=1.5 vminpu=0.92
New Load.BT_1214905_M2 bus1=UC1214905.1.4 phases=1 conn=Wye model=3 kv=0.22 kw=0.3618255 pf=0.92 daily=RU1_DU status=variable vmaxpu=1.5 vminpu=0.92
New Load.BT_1225163_M1 bus1=UC1225163.2.4 phases=1 conn=Wye model=2 kv=0.22 kw=0.0944115 pf=0.92 daily=RU4_DU status=variable vmaxpu=1.5 vminpu=0.92
New Load.BT_1225163_M2 bus1=UC1225163.2.4 phases=1 conn=Wye model=3 kv=0.22 kw=0.0944115 pf=0.92 daily=RU4_DU status=variable vmaxpu=1.5 vminpu=0.92
New Load.BT_1222721_M1 bus1=UC1222721.1.4 phases=1 conn=Wye model=2 kv=0.22 kw=0.200998 pf=0.92 daily=RU5_DU status=variable vmaxpu=1.5 vminpu=0.92
New Load.BT_1222721_M2 bus1=UC1222721.1.4 phases=1 conn=Wye model=3 kv=0.22 kw=0.200998 pf=0.92 daily=RU5_DU status=variable vmaxpu=1.5 vminpu=0.92
New Load.BT_1214924_M1 bus1=UC1214924.2.4 phases=1 conn=Wye model=2 kv=0.22 kw=0.325237 pf=0.92 daily=RU2_DU status=variable vmaxpu=1.5 vminpu=0.92
New Load.BT_1214924_M2 bus1=UC1214924.2.4 phases=1 conn=Wye model=3 kv=0.22 kw=0.325237 pf=0.92 daily=RU2_DU status=variable vmaxpu=1.5 vminpu=0.92
New Load.BT_1215126_M1 bus1=UC1215126.1.4 phases=1 conn=Wye model=2 kv=0.22 kw=0.26512 pf=0.92 daily=RU5_DU status=variable vmaxpu=1.5 vminpu=0.92
New Load.BT_1215126_M2 bus1=UC1215126.1.4 phases=1 conn=Wye model=3 kv=0.22 kw=0.26512 pf=0.92 daily=RU5_DU status=variable vmaxpu=1.5 vminpu=0.92
New Load.BT_1237703_M1 bus1=UC1237703.1.4 phases=1 conn=Wye model=2 kv=0.22 kw=0.226534 pf=0.92 daily=RU1_DU status=variable vmaxpu=1.5 vminpu=0.92
New Load.BT_1237703_M2 bus1=UC1237703.1.4 phases=1 conn=Wye model=3 kv=0.22 kw=0.226534 pf=0.92 daily=RU1_DU status=variable vmaxpu=1.5 vminpu=0.92
New Load.BT_IP2990_M1 bus1=ET12_1135.1.4 phases=1 conn=Wye model=2 kv=0.22 kw=0.204713 pf=0.92 daily=IP1_DU status=variable vmaxpu=1.5 vminpu=0.92
New Load.BT_IP2990_M2 bus1=ET12_1135.1.4 phases=1 conn=Wye model=3 kv=0.22 kw=0.204713 pf=0.92 daily=IP1_DU status=variable vmaxpu=1.5 vminpu=0.92
New Load.BT_IP2991_M1 bus1=BT14841.1.4 phases=1 conn=Wye model=2 kv=0.22 kw=0.4094265 pf=0.92 daily=IP1_DU status=variable vmaxpu=1.5 vminpu=0.92
New Load.BT_IP2991_M2 bus1=BT14841.1.4 phases=1 conn=Wye model=3 kv=0.22 kw=0.4094265 pf=0.92 daily=IP1_DU status=variable vmaxpu=1.5 vminpu=0.92
New Load.BT_1214917_M1 bus1=UC1214917.1.4 phases=1 conn=Wye model=2 kv=0.22 kw=0.68459 pf=0.92 daily=RU6_DU status=variable vmaxpu=1.5 vminpu=0.92
New Load.BT_1214917_M2 bus1=UC1214917.1.4 phases=1 conn=Wye model=3 kv=0.22 kw=0.68459 pf=0.92 daily=RU6_DU status=variable vmaxpu=1.5 vminpu=0.92
New Load.BT_1216104_M1 bus1=UC1216104.2.4 phases=1 conn=Wye model=2 kv=0.22 kw=0.213421 pf=0.92 daily=RU7_DU status=variable vmaxpu=1.5 vminpu=0.92
New Load.BT_1216104_M2 bus1=UC1216104.2.4 phases=1 conn=Wye model=3 kv=0.22 kw=0.213421 pf=0.92 daily=RU7_DU status=variable vmaxpu=1.5 vminpu=0.92
New Load.BT_1215309_M1 bus1=UC1215309.1.4 phases=1 conn=Wye model=2 kv=0.22 kw=0.274383 pf=0.92 daily=RU4_DU status=variable vmaxpu=1.5 vminpu=0.92
New Load.BT_1215309_M2 bus1=UC1215309.1.4 phases=1 conn=Wye model=3 kv=0.22 kw=0.274383 pf=0.92 daily=RU4_DU status=variable vmaxpu=1.5 vminpu=0.92
New Load.BT_1220359_M1 bus1=UC1220359.2.4 phases=1 conn=Wye model=2 kv=0.22 kw=0.3557015 pf=0.92 daily=RU7_DU status=variable vmaxpu=1.5 vminpu=0.92
New Load.BT_1220359_M2 bus1=UC1220359.2.4 phases=1 conn=Wye model=3 kv=0.22 kw=0.3557015 pf=0.92 daily=RU7_DU status=variable vmaxpu=1.5 vminpu=0.92
New Load.BT_1228770_M1 bus1=UC1228770.1.4 phases=1 conn=Wye model=2 kv=0.22 kw=0 pf=0.92 daily=RU8_DU status=variable vmaxpu=1.5 vminpu=0.92
New Load.BT_1228770_M2 bus1=UC1228770.1.4 phases=1 conn=Wye model=3 kv=0.22 kw=0 pf=0.92 daily=RU8_DU status=variable vmaxpu=1.5 vminpu=0.92
New Load.BT_1214983_M1 bus1=UC1214983.1.4 phases=1 conn=Wye model=2 kv=0.22 kw=0.176193 pf=0.92 daily=RU1_DU status=variable vmaxpu=1.5 vminpu=0.92
New Load.BT_1214983_M2 bus1=UC1214983.1.4 phases=1 conn=Wye model=3 kv=0.22 kw=0.176193 pf=0.92 daily=RU1_DU status=variable vmaxpu=1.5 vminpu=0.92
New Load.BT_1215059_M1 bus1=UC1215059.2.4 phases=1 conn=Wye model=2 kv=0.22 kw=0 pf=0.92 daily=RU7_DU status=variable vmaxpu=1.5 vminpu=0.92
New Load.BT_1215059_M2 bus1=UC1215059.2.4 phases=1 conn=Wye model=3 kv=0.22 kw=0 pf=0.92 daily=RU7_DU status=variable vmaxpu=1.5 vminpu=0.92
New Load.BT_1216101_M1 bus1=UC1216101.1.4 phases=1 conn=Wye model=2 kv=0.22 kw=0.476881 pf=0.92 daily=RU2_DU status=variable vmaxpu=1.5 vminpu=0.92
New Load.BT_1216101_M2 bus1=UC1216101.1.4 phases=1 conn=Wye model=3 kv=0.22 kw=0.476881 pf=0.92 daily=RU2_DU status=variable vmaxpu=1.5 vminpu=0.92
New Load.BT_1226677_M1 bus1=UC1226677.1.4 phases=1 conn=Wye model=2 kv=0.22 kw=0.8285355 pf=0.92 daily=RU6_DU status=variable vmaxpu=1.5 vminpu=0.92
New Load.BT_1226677_M2 bus1=UC1226677.1.4 phases=1 conn=Wye model=3 kv=0.22 kw=0.8285355 pf=0.92 daily=RU6_DU status=variable vmaxpu=1.5 vminpu=0.92
New Load.BT_1226686_M1 bus1=UC1226686.2.4 phases=1 conn=Wye model=2 kv=0.219393102 kw=0.4582915 pf=0.92 daily=RE8_DU status=variable vmaxpu=1.5 vminpu=0.92
New Load.BT_1226686_M2 bus1=UC1226686.2.4 phases=1 conn=Wye model=3 kv=0.219393102 kw=0.4582915 pf=0.92 daily=RE8_DU status=variable vmaxpu=1.5 vminpu=0.92
New Load.BT_1226701_M1 bus1=UC1226701.1.4 phases=1 conn=Wye model=2 kv=0.219393102 kw=0.232329 pf=0.92 daily=RE7_DU status=variable vmaxpu=1.5 vminpu=0.92
New Load.BT_1226701_M2 bus1=UC1226701.1.4 phases=1 conn=Wye model=3 kv=0.219393102 kw=0.232329 pf=0.92 daily=RE7_DU status=variable vmaxpu=1.5 vminpu=0.92
New Load.BT_1227322_M1 bus1=UC1227322.2.4 phases=1 conn=Wye model=2 kv=0.219393102 kw=0.0522945 pf=0.92 daily=RE5_DU status=variable vmaxpu=1.5 vminpu=0.92
New Load.BT_1227322_M2 bus1=UC1227322.2.4 phases=1 conn=Wye model=3 kv=0.219393102 kw=0.0522945 pf=0.92 daily=RE5_DU status=variable vmaxpu=1.5 vminpu=0.92
New Load.BT_1227324_M1 bus1=UC1227324.1.4 phases=1 conn=Wye model=2 kv=0.219393102 kw=0.006561 pf=0.92 daily=RE6_DU status=variable vmaxpu=1.5 vminpu=0.92
New Load.BT_1227324_M2 bus1=UC1227324.1.4 phases=1 conn=Wye model=3 kv=0.219393102 kw=0.006561 pf=0.92 daily=RE6_DU status=variable vmaxpu=1.5 vminpu=0.92
New Load.BT_1225637_M1 bus1=UC1225637.1.4 phases=1 conn=Wye model=2 kv=0.219393102 kw=0.2201755 pf=0.92 daily=RE8_DU status=variable vmaxpu=1.5 vminpu=0.92
New Load.BT_1225637_M2 bus1=UC1225637.1.4 phases=1 conn=Wye model=3 kv=0.219393102 kw=0.2201755 pf=0.92 daily=RE8_DU status=variable vmaxpu=1.5 vminpu=0.92
New Load.BT_1226477_M1 bus1=UC1226477.1.4 phases=1 conn=Wye model=2 kv=0.219393102 kw=0.2935535 pf=0.92 daily=RE4_DU status=variable vmaxpu=1.5 vminpu=0.92
New Load.BT_1226477_M2 bus1=UC1226477.1.4 phases=1 conn=Wye model=3 kv=0.219393102 kw=0.2935535 pf=0.92 daily=RE4_DU status=variable vmaxpu=1.5 vminpu=0.92
New Load.BT_1225632_M1 bus1=UC1225632.2.4 phases=1 conn=Wye model=2 kv=0.219393102 kw=0.00157 pf=0.92 daily=CO1_DU status=variable vmaxpu=1.5 vminpu=0.92
New Load.BT_1225632_M2 bus1=UC1225632.2.4 phases=1 conn=Wye model=3 kv=0.219393102 kw=0.00157 pf=0.92 daily=CO1_DU status=variable vmaxpu=1.5 vminpu=0.92
New Load.BT_1225634_M1 bus1=UC1225634.1.4 phases=1 conn=Wye model=2 kv=0.219393102 kw=0.164724 pf=0.92 daily=RE8_DU status=variable vmaxpu=1.5 vminpu=0.92
New Load.BT_1225634_M2 bus1=UC1225634.1.4 phases=1 conn=Wye model=3 kv=0.219393102 kw=0.164724 pf=0.92 daily=RE8_DU status=variable vmaxpu=1.5 vminpu=0.92
New Load.BT_1228767_M1 bus1=UC1228767.1.4 phases=1 conn=Wye model=2 kv=0.219393102 kw=0.1745095 pf=0.92 daily=RE8_DU status=variable vmaxpu=1.5 vminpu=0.92
New Load.BT_1228767_M2 bus1=UC1228767.1.4 phases=1 conn=Wye model=3 kv=0.219393102 kw=0.1745095 pf=0.92 daily=RE8_DU status=variable vmaxpu=1.5 vminpu=0.92
New Load.BT_1227340_M1 bus1=UC1227340.2.4 phases=1 conn=Wye model=2 kv=0.219393102 kw=0.3881615 pf=0.92 daily=RE8_DU status=variable vmaxpu=1.5 vminpu=0.92
New Load.BT_1227340_M2 bus1=UC1227340.2.4 phases=1 conn=Wye model=3 kv=0.219393102 kw=0.3881615 pf=0.92 daily=RE8_DU status=variable vmaxpu=1.5 vminpu=0.92
New Load.BT_1228752_M1 bus1=UC1228752.3.4 phases=1 conn=Wye model=2 kv=0.219393102 kw=0.087889 pf=0.92 daily=RE2_DU status=variable vmaxpu=1.5 vminpu=0.92
New Load.BT_1228752_M2 bus1=UC1228752.3.4 phases=1 conn=Wye model=3 kv=0.219393102 kw=0.087889 pf=0.92 daily=RE2_DU status=variable vmaxpu=1.5 vminpu=0.92
New Load.BT_1220361_M1 bus1=UC1220361.3.4 phases=1 conn=Wye model=2 kv=0.219393102 kw=0.37155 pf=0.92 daily=RE1_DU status=variable vmaxpu=1.5 vminpu=0.92
New Load.BT_1220361_M2 bus1=UC1220361.3.4 phases=1 conn=Wye model=3 kv=0.219393102 kw=0.37155 pf=0.92 daily=RE1_DU status=variable vmaxpu=1.5 vminpu=0.92
New Load.BT_1220362_M1 bus1=UC1220362.3.4 phases=1 conn=Wye model=2 kv=0.219393102 kw=0.149414 pf=0.92 daily=RE5_DU status=variable vmaxpu=1.5 vminpu=0.92
New Load.BT_1220362_M2 bus1=UC1220362.3.4 phases=1 conn=Wye model=3 kv=0.219393102 kw=0.149414 pf=0.92 daily=RE5_DU status=variable vmaxpu=1.5 vminpu=0.92
New Load.BT_1220367_M1 bus1=UC1220367.3.4 phases=1 conn=Wye model=2 kv=0.219393102 kw=0.895768 pf=0.92 daily=CO1_DU status=variable vmaxpu=1.5 vminpu=0.92
New Load.BT_1220367_M2 bus1=UC1220367.3.4 phases=1 conn=Wye model=3 kv=0.219393102 kw=0.895768 pf=0.92 daily=CO1_DU status=variable vmaxpu=1.5 vminpu=0.92
New Load.BT_1220370_M1 bus1=UC1220370.1.4 phases=1 conn=Wye model=2 kv=0.219393102 kw=0.16451 pf=0.92 daily=RE2_DU status=variable vmaxpu=1.5 vminpu=0.92
New Load.BT_1220370_M2 bus1=UC1220370.1.4 phases=1 conn=Wye model=3 kv=0.219393102 kw=0.16451 pf=0.92 daily=RE2_DU status=variable vmaxpu=1.5 vminpu=0.92
New Load.BT_1220372_M1 bus1=UC1220372.2.4 phases=1 conn=Wye model=2 kv=0.219393102 kw=0.330894 pf=0.92 daily=RE1_DU status=variable vmaxpu=1.5 vminpu=0.92
New Load.BT_1220372_M2 bus1=UC1220372.2.4 phases=1 conn=Wye model=3 kv=0.219393102 kw=0.330894 pf=0.92 daily=RE1_DU status=variable vmaxpu=1.5 vminpu=0.92
New Load.BT_1216199_M1 bus1=UC1216199.2.4 phases=1 conn=Wye model=2 kv=0.219393102 kw=0.269502 pf=0.92 daily=RE7_DU status=variable vmaxpu=1.5 vminpu=0.92
New Load.BT_1216199_M2 bus1=UC1216199.2.4 phases=1 conn=Wye model=3 kv=0.219393102 kw=0.269502 pf=0.92 daily=RE7_DU status=variable vmaxpu=1.5 vminpu=0.92
New Load.BT_1216200_M1 bus1=UC1216200.3.4 phases=1 conn=Wye model=2 kv=0.219393102 kw=0.2079345 pf=0.92 daily=RE5_DU status=variable vmaxpu=1.5 vminpu=0.92
New Load.BT_1216200_M2 bus1=UC1216200.3.4 phases=1 conn=Wye model=3 kv=0.219393102 kw=0.2079345 pf=0.92 daily=RE5_DU status=variable vmaxpu=1.5 vminpu=0.92
New Load.BT_1220357_M1 bus1=UC1220357.3.4 phases=1 conn=Wye model=2 kv=0.219393102 kw=0.2152825 pf=0.92 daily=RE8_DU status=variable vmaxpu=1.5 vminpu=0.92
New Load.BT_1220357_M2 bus1=UC1220357.3.4 phases=1 conn=Wye model=3 kv=0.219393102 kw=0.2152825 pf=0.92 daily=RE8_DU status=variable vmaxpu=1.5 vminpu=0.92
New Load.BT_1222701_M1 bus1=UC1222701.1.4 phases=1 conn=Wye model=2 kv=0.219393102 kw=0.1069725 pf=0.92 daily=RE4_DU status=variable vmaxpu=1.5 vminpu=0.92
New Load.BT_1222701_M2 bus1=UC1222701.1.4 phases=1 conn=Wye model=3 kv=0.219393102 kw=0.1069725 pf=0.92 daily=RE4_DU status=variable vmaxpu=1.5 vminpu=0.92
New Load.BT_1224030_M1 bus1=UC1224030.1.4 phases=1 conn=Wye model=2 kv=0.219393102 kw=0.2006045 pf=0.92 daily=RE8_DU status=variable vmaxpu=1.5 vminpu=0.92
New Load.BT_1224030_M2 bus1=UC1224030.1.4 phases=1 conn=Wye model=3 kv=0.219393102 kw=0.2006045 pf=0.92 daily=RE8_DU status=variable vmaxpu=1.5 vminpu=0.92
New Load.BT_1224031_M1 bus1=UC1224031.2.4 phases=1 conn=Wye model=2 kv=0.219393102 kw=0.252794 pf=0.92 daily=RE8_DU status=variable vmaxpu=1.5 vminpu=0.92
New Load.BT_1224031_M2 bus1=UC1224031.2.4 phases=1 conn=Wye model=3 kv=0.219393102 kw=0.252794 pf=0.92 daily=RE8_DU status=variable vmaxpu=1.5 vminpu=0.92
New Load.BT_1224036_M1 bus1=UC1224036.1.4 phases=1 conn=Wye model=2 kv=0.219393102 kw=0.373535 pf=0.92 daily=RE5_DU status=variable vmaxpu=1.5 vminpu=0.92
New Load.BT_1224036_M2 bus1=UC1224036.1.4 phases=1 conn=Wye model=3 kv=0.219393102 kw=0.373535 pf=0.92 daily=RE5_DU status=variable vmaxpu=1.5 vminpu=0.92
New Load.BT_1224040_M1 bus1=UC1224040.2.4 phases=1 conn=Wye model=2 kv=0.219393102 kw=0.2846035 pf=0.92 daily=RE7_DU status=variable vmaxpu=1.5 vminpu=0.92
New Load.BT_1224040_M2 bus1=UC1224040.2.4 phases=1 conn=Wye model=3 kv=0.219393102 kw=0.2846035 pf=0.92 daily=RE7_DU status=variable vmaxpu=1.5 vminpu=0.92
New Load.BT_1224638_M1 bus1=UC1224638.3.4 phases=1 conn=Wye model=2 kv=0.219393102 kw=0.3164005 pf=0.92 daily=RE8_DU status=variable vmaxpu=1.5 vminpu=0.92
New Load.BT_1224638_M2 bus1=UC1224638.3.4 phases=1 conn=Wye model=3 kv=0.219393102 kw=0.3164005 pf=0.92 daily=RE8_DU status=variable vmaxpu=1.5 vminpu=0.92
New Load.BT_1233676_M1 bus1=UC1233676.3.4 phases=1 conn=Wye model=2 kv=0.219393102 kw=0 pf=0.92 daily=RE8_DU status=variable vmaxpu=1.5 vminpu=0.92
New Load.BT_1233676_M2 bus1=UC1233676.3.4 phases=1 conn=Wye model=3 kv=0.219393102 kw=0 pf=0.92 daily=RE8_DU status=variable vmaxpu=1.5 vminpu=0.92
New Load.BT_1230361_M1 bus1=UC1230361.2.4 phases=1 conn=Wye model=2 kv=0.219393102 kw=0.094856 pf=0.92 daily=RE3_DU status=variable vmaxpu=1.5 vminpu=0.92
New Load.BT_1230361_M2 bus1=UC1230361.2.4 phases=1 conn=Wye model=3 kv=0.219393102 kw=0.094856 pf=0.92 daily=RE3_DU status=variable vmaxpu=1.5 vminpu=0.92
New Load.BT_1230367_M1 bus1=UC1230367.1.4 phases=1 conn=Wye model=2 kv=0.219393102 kw=0.2111845 pf=0.92 daily=RE1_DU status=variable vmaxpu=1.5 vminpu=0.92
New Load.BT_1230367_M2 bus1=UC1230367.1.4 phases=1 conn=Wye model=3 kv=0.219393102 kw=0.2111845 pf=0.92 daily=RE1_DU status=variable vmaxpu=1.5 vminpu=0.92
New Load.BT_1230369_M1 bus1=UC1230369.2.4 phases=1 conn=Wye model=2 kv=0.219393102 kw=0.111645 pf=0.92 daily=RE3_DU status=variable vmaxpu=1.5 vminpu=0.92
New Load.BT_1230369_M2 bus1=UC1230369.2.4 phases=1 conn=Wye model=3 kv=0.219393102 kw=0.111645 pf=0.92 daily=RE3_DU status=variable vmaxpu=1.5 vminpu=0.92
New Load.BT_1231389_M1 bus1=UC1231389.1.4 phases=1 conn=Wye model=2 kv=0.219393102 kw=0.258033 pf=0.92 daily=RE2_DU status=variable vmaxpu=1.5 vminpu=0.92
New Load.BT_1231389_M2 bus1=UC1231389.1.4 phases=1 conn=Wye model=3 kv=0.219393102 kw=0.258033 pf=0.92 daily=RE2_DU status=variable vmaxpu=1.5 vminpu=0.92
New Load.BT_1231390_M1 bus1=UC1231390.1.4 phases=1 conn=Wye model=2 kv=0.219393102 kw=0.12107 pf=0.92 daily=RE4_DU status=variable vmaxpu=1.5 vminpu=0.92
New Load.BT_1231390_M2 bus1=UC1231390.1.4 phases=1 conn=Wye model=3 kv=0.219393102 kw=0.12107 pf=0.92 daily=RE4_DU status=variable vmaxpu=1.5 vminpu=0.92
New Load.BT_1231392_M1 bus1=UC1231392.1.4 phases=1 conn=Wye model=2 kv=0.219393102 kw=0.1960655 pf=0.92 daily=RU5_DU status=variable vmaxpu=1.5 vminpu=0.92
New Load.BT_1231392_M2 bus1=UC1231392.1.4 phases=1 conn=Wye model=3 kv=0.219393102 kw=0.1960655 pf=0.92 daily=RU5_DU status=variable vmaxpu=1.5 vminpu=0.92
New Load.BT_1231386_M1 bus1=UC1231386.1.4 phases=1 conn=Wye model=2 kv=0.219393102 kw=0 pf=0.92 daily=RE2_DU status=variable vmaxpu=1.5 vminpu=0.92
New Load.BT_1231386_M2 bus1=UC1231386.1.4 phases=1 conn=Wye model=3 kv=0.219393102 kw=0 pf=0.92 daily=RE2_DU status=variable vmaxpu=1.5 vminpu=0.92
...
